LTspice 24.1.8 for Windows
Circuit: C:\users\lukas\Documents\Other\low_pass_filter.net
Start Time: Sat May 17 15:32:13 2025
solver = Normal
Maximum thread count: 8
tnom = 27
temp = 27
method = trap
.OP point found by inspection.
Total elapsed time: 0.099 seconds.

Files loaded:
C:\users\lukas\Documents\Other\low_pass_filter.net

